data_image0
_chemical_formula_structural       Fe5Si4Ca2AlO17H2OH2OH2OH2OH2OH2OH2OH2OH2OH2
_chemical_formula_sum              "Fe5 Si4 Ca2 Al1 O26 H20"
_cell_length_a       15.939878537739165
_cell_length_b       15.939878537739165
_cell_length_c       15.939878537739165
_cell_angle_alpha    90.0
_cell_angle_beta     90.0
_cell_angle_gamma    90.0

_space_group_name_H-M_alt    "P 1"
_space_group_IT_number       1

loop_
  _space_group_symop_operation_xyz
  'x, y, z'

loop_
  _atom_site_type_symbol
  _atom_site_label
  _atom_site_symmetry_multiplicity
  _atom_site_fract_x
  _atom_site_fract_y
  _atom_site_fract_z
  _atom_site_occupancy
  Fe  Fe1       1.0  0.272246155356985  0.35520360461602846  0.352454179458686  1.0000
  Fe  Fe2       1.0  0.5967671716336661  0.5704482610525039  0.32182663601829337  1.0000
  Fe  Fe3       1.0  0.34542420048631006  0.21257075746727375  0.28549408336706644  1.0000
  Fe  Fe4       1.0  0.286393503561074  0.399388854194607  0.1858616569830212  1.0000
  Fe  Fe5       1.0  0.2593552183084004  0.19281202648574122  0.510156655020408  1.0000
  Si  Si1       1.0  0.4458885815653612  0.45148654458132753  0.13559090770805682  1.0000
  Si  Si2       1.0  0.5014546020864796  0.20618131731465275  0.23655671977520526  1.0000
  Si  Si3       1.0  0.4555300079062004  0.44861957880170783  0.3286524739733982  1.0000
  Si  Si4       1.0  0.570759764853255  0.33831137483424456  0.22081792978119508  1.0000
  Ca  Ca1       1.0  0.4336154876876137  0.2814131192965871  0.47018555259747685  1.0000
  Ca  Ca2       1.0  0.4152210023025528  0.2734392950263435  0.023188889818617928  1.0000
  Al  Al1       1.0  0.10845147576806555  0.45458982307981843  0.2775308704498743  1.0000
  O   O1        1.0  0.48860482065490585  0.3145372989193845  0.5864420312083162  1.0000
  O   O2        1.0  0.21609640183661655  0.44975815974266475  0.28355591214730225  1.0000
  O   O3        1.0  0.27078018150050226  0.2921671588826402  0.23812703366515908  1.0000
  O   O4        1.0  0.3890645284606028  0.3978005529102184  0.3856223970518144  1.0000
  O   O5        1.0  0.49230022932749534  0.5363321388737046  0.36366557553173257  1.0000
  O   O6        1.0  0.15235838650318445  0.1803554627150668  0.5664126506112075  1.0000
  O   O7        1.0  0.4618544811152658  0.19891400589376476  0.331128082298151  1.0000
  O   O8        1.0  0.18030838356774465  0.10429346407889713  0.538128468813935  1.0000
  O   O9        1.0  0.03623461027794376  0.5262765325787797  0.3025044390245147  1.0000
  O   O10       1.0  0.8719472079858035  0.38692830498368497  0.3068936033178574  1.0000
  O   O11       1.0  0.4103204410458101  0.4652100393872097  0.2331274348490396  1.0000
  O   O12       1.0  0.4283303737084723  0.20657102560581347  0.16617833729920262  1.0000
  O   O13       1.0  0.2935711457718234  0.24234153737033426  0.4064040206190683  1.0000
  O   O14       1.0  0.34478249536911443  0.2190367020040458  0.5812385026816143  1.0000
  O   O15       1.0  0.5319934425955553  0.3936243467342716  0.8062211956161431  1.0000
  O   O16       1.0  0.3703374993122367  0.3981651245643726  0.09143157069046563  1.0000
  O   O17       1.0  0.8364092673603383  0.22545964906653396  0.4673341703553846  1.0000
  H   H1        1.0  0.8351730461609574  0.2733260479418862  0.4299242867989835  1.0000
  H   H2        1.0  0.8376454885597192  0.17759325019118172  0.4299242867989835  1.0000
  O   O18       1.0  0.2507649900675557  0.8099007301229976  0.633293684406643  1.0000
  H   H3        1.0  0.24626866662300398  0.8575715121559168  0.5958838008502418  1.0000
  H   H4        1.0  0.2552613135121074  0.7622299480900785  0.5958838008502418  1.0000
  O   O19       1.0  0.22474558681949552  0.7258752546808278  0.23016217657918545  1.0000
  H   H5        1.0  0.22317052202408091  0.7737317020525076  0.19275229302278432  1.0000
  H   H6        1.0  0.22632065161491016  0.6780188073091479  0.19275229302278432  1.0000
  O   O20       1.0  0.6390367291792183  0.3645378626185044  0.47033122896107765  1.0000
  H   H7        1.0  0.6345259117060776  0.41220727534692103  0.43292134540467647  1.0000
  H   H8        1.0  0.643547546652359  0.3168684498900878  0.43292134540467647  1.0000
  O   O21       1.0  0.8669382413475744  0.4752380123535492  0.5737629632801674  1.0000
  H   H9        1.0  0.8649420087077505  0.5230787422747766  0.5363530797237661  1.0000
  H   H10       1.0  0.8689344739873982  0.4273972824323217  0.5363530797237661  1.0000
  O   O22       1.0  0.6538990126900317  0.4946635103383588  0.13243171937629733  1.0000
  H   H11       1.0  0.6506834097871335  0.5424377741434557  0.09502183581989619  1.0000
  H   H12       1.0  0.6571146155929299  0.4468892465332619  0.09502183581989619  1.0000
  O   O23       1.0  0.42908030217412096  0.17717247216089263  0.9038497722436987  1.0000
  H   H13       1.0  0.4249378165132031  0.22487530432730815  0.8664398886872974  1.0000
  H   H14       1.0  0.43322278783503876  0.12946963999447708  0.8664398886872974  1.0000
  O   O24       1.0  0.8404793752495168  0.10247938507517054  0.8396928151172405  1.0000
  H   H15       1.0  0.8357688941699838  0.1501294821595153  0.8022829315608393  1.0000
  H   H16       1.0  0.8451898563290497  0.05482928799082576  0.8022829315608393  1.0000
  O   O25       1.0  0.37624989542307247  0.8313407909009839  0.41980681863047736  1.0000
  H   H17       1.0  0.3751030702022922  0.8792094150305858  0.38239693507407624  1.0000
  H   H18       1.0  0.3773967206438527  0.7834721667713819  0.38239693507407624  1.0000
  O   O26       1.0  0.4374491698596769  0.5411394771674366  0.6953530174880912  1.0000
  H   H19       1.0  0.4364855867968683  0.5890121404715519  0.65794313393169  1.0000
  H   H20       1.0  0.4384127529224856  0.49326681386332133  0.65794313393169  1.0000
