data_image0
_chemical_formula_structural       Fe5Si4Ca2AlO16
_chemical_formula_sum              "Fe5 Si4 Ca2 Al1 O16"
_cell_length_a       10.62658569182611
_cell_length_b       10.62658569182611
_cell_length_c       10.62658569182611
_cell_angle_alpha    90.0
_cell_angle_beta     90.0
_cell_angle_gamma    90.0

_space_group_name_H-M_alt    "P 1"
_space_group_IT_number       1

loop_
  _space_group_symop_operation_xyz
  'x, y, z'

loop_
  _atom_site_type_symbol
  _atom_site_label
  _atom_site_symmetry_multiplicity
  _atom_site_fract_x
  _atom_site_fract_y
  _atom_site_fract_z
  _atom_site_occupancy
  Fe  Fe1       1.0  0.4083692330354775  0.5328054069240428  0.5286812691880292  1.0000
  Fe  Fe2       1.0  0.8951507574504994  0.8556723915787561  0.4827399540274402  1.0000
  Fe  Fe3       1.0  0.5181363007294651  0.3188561362009107  0.4282411250505998  1.0000
  Fe  Fe4       1.0  0.4295902553416111  0.5990832812919107  0.2787924854745319  1.0000
  Fe  Fe5       1.0  0.38903282746260076  0.2892180397286119  0.7652349825306122  1.0000
  Si  Si1       1.0  0.668832872348042  0.6772298168719915  0.20338636156208528  1.0000
  Si  Si2       1.0  0.7521819031297196  0.3092719759719792  0.354835079662808  1.0000
  Si  Si3       1.0  0.6832950118593007  0.6729293682025619  0.49297871096009743  1.0000
  Si  Si4       1.0  0.8561396472798827  0.507467062251367  0.33122689467179267  1.0000
  Ca  Ca1       1.0  0.6504232315314207  0.4221196789448807  0.7052783288962154  1.0000
  Ca  Ca2       1.0  0.6228315034538293  0.41015894253951535  0.0347833347279269  1.0000
  Al  Al1       1.0  0.16267721365209833  0.6818847346197279  0.4162963056748115  1.0000
  O   O1        1.0  0.7329072309823589  0.4718059483790768  0.8796630468124744  1.0000
  O   O2        1.0  0.3241446027549249  0.6746372396139974  0.4253338682209535  1.0000
  O   O3        1.0  0.4061702722507534  0.43825073832396044  0.35719055049773873  1.0000
  O   O4        1.0  0.5835967926909044  0.5967008293653278  0.5784335955777218  1.0000
  O   O5        1.0  0.7384503439912432  0.804498208310557  0.5454983632975989  1.0000
  O   O6        1.0  0.22853757975477673  0.2705331940726003  0.8496189759168115  1.0000
  O   O7        1.0  0.6927817216728988  0.2983710088406472  0.4966921234472266  1.0000
  O   O8        1.0  0.27046257535161705  0.15644019611834573  0.8071927032209025  1.0000
  O   O9        1.0  0.05435191541691565  0.7894147988681697  0.45375665853677216  1.0000
  O   O10       1.0  0.8079208119787052  0.5803924574755276  0.4603404049767862  1.0000
  O   O11       1.0  0.6154806615687153  0.6978150590808146  0.34969115227355946  1.0000
  O   O12       1.0  0.6424955605627086  0.3098565384087203  0.249267505948804  1.0000
  O   O13       1.0  0.44035671865773524  0.36351230605550144  0.6096060309286025  1.0000
  O   O14       1.0  0.5171737430536718  0.3285550530060688  0.8718577540224216  1.0000
  O   O15       1.0  0.797990163893333  0.5904365201014075  0.20933179342421493  1.0000
  O   O16       1.0  0.5555062489683552  0.597247686846559  0.13714735603569847  1.0000
