data_image0
_chemical_formula_structural       Ca5Si4Fe3AlO16
_chemical_formula_sum              "Ca5 Si4 Fe3 Al1 O16"
_cell_length_a       10.62658569182611
_cell_length_b       10.62658569182611
_cell_length_c       10.62658569182611
_cell_angle_alpha    90.0
_cell_angle_beta     90.0
_cell_angle_gamma    90.0

_space_group_name_H-M_alt    "P 1"
_space_group_IT_number       1

loop_
  _space_group_symop_operation_xyz
  'x, y, z'

loop_
  _atom_site_type_symbol
  _atom_site_label
  _atom_site_symmetry_multiplicity
  _atom_site_fract_x
  _atom_site_fract_y
  _atom_site_fract_z
  _atom_site_occupancy
  Ca  Ca1       1.0  0.6540065871904942  0.09073378792806158  0.3629575858476735  1.0000
  Ca  Ca2       1.0  0.5466342407436414  0.572154599718967  0.6420259477515528  1.0000
  Ca  Ca3       1.0  0.21026852227327397  0.38913076581570133  0.5956573654796607  1.0000
  Ca  Ca4       1.0  0.3648387294255466  0.29190588482517066  0.29070454219795344  1.0000
  Ca  Ca5       1.0  0.8107596733744354  0.3142213499808528  0.6294044210791562  1.0000
  Si  Si1       1.0  0.5111800964552852  0.4850295195368871  0.05683643525315841  1.0000
  Si  Si2       1.0  0.603200448434883  0.7778758908179298  0.19101909878439519  1.0000
  Si  Si3       1.0  0.4163438390916544  0.5520671295825569  0.3845443717034133  1.0000
  Si  Si4       1.0  0.6850354002850821  0.4377142667425826  0.39383825181858684  1.0000
  Fe  Fe1       1.0  0.9376575065153007  0.29865971173357675  0.36456742304437123  1.0000
  Fe  Fe2       1.0  0.4351239563746803  0.36988218934270073  0.7803595583689097  1.0000
  Fe  Fe3       1.0  0.5196945760543961  0.21199893308417328  0.5803393906302885  1.0000
  Al  Al1       1.0  0.4679025580507347  0.6263389128858151  0.1816407617577373  1.0000
  O   O1        1.0  0.7367185306908942  0.5064082325364377  0.5151018478150474  1.0000
  O   O2        1.0  0.5994246227493198  0.9043018151566439  0.272193717459632  1.0000
  O   O3        1.0  0.47247659207478937  0.17104151143397356  0.4128075409535749  1.0000
  O   O4        1.0  0.47528643370399964  0.6271200385351755  0.17392299985987789  1.0000
  O   O5        1.0  0.5321360946837028  0.44018307689424935  0.3801678968067227  1.0000
  O   O6        1.0  0.46543427777752966  0.3588327022677424  0.12318780081095501  1.0000
  O   O7        1.0  0.3543701123111654  0.5005222102766287  0.6983957478108946  1.0000
  O   O8        1.0  0.7487093108917833  0.315326644145586  0.33313932251013245  1.0000
  O   O9        1.0  0.0009735434248375282  0.32652940170614825  0.531899824942504  1.0000
  O   O10       1.0  0.3623000289803546  0.2382555955135197  0.6737011682872999  1.0000
  O   O11       1.0  0.686434263821891  0.15002210369613403  0.5592928150743061  1.0000
  O   O12       1.0  0.29309317091940085  0.46289933359283225  0.3970842403678676  1.0000
  O   O13       1.0  0.9919615299545472  0.32339511589669706  0.5188631732065642  1.0000
  O   O14       1.0  0.5857801593890479  0.3585082429399714  0.6759737412140019  1.0000
  O   O15       1.0  0.5239770089053974  0.4828939533990719  0.9070103641360571  1.0000
  O   O16       1.0  0.45270753751287357  0.6629654264680117  0.4765746510672232  1.0000
