data_image0
_chemical_formula_structural       Ca4Si5Al2O17H2OH2OH2OH2OH2OH2OH2OH2OH2OH2
_chemical_formula_sum              "Ca4 Si5 Al2 O26 H20"
_cell_length_a       14.999999999999996
_cell_length_b       14.999999999999996
_cell_length_c       14.999999999999996
_cell_angle_alpha    90.0
_cell_angle_beta     90.0
_cell_angle_gamma    90.0

_space_group_name_H-M_alt    "P 1"
_space_group_IT_number       1

loop_
  _space_group_symop_operation_xyz
  'x, y, z'

loop_
  _atom_site_type_symbol
  _atom_site_label
  _atom_site_symmetry_multiplicity
  _atom_site_fract_x
  _atom_site_fract_y
  _atom_site_fract_z
  _atom_site_occupancy
  Ca  Ca1       1.0  0.17700337990089074  0.25784830787059304  0.4361280342186533  1.0000
  Ca  Ca2       1.0  0.352692785024873  0.048558128024813754  0.3364328242117336  1.0000
  Ca  Ca3       1.0  0.6468652558014155  0.39926007175145095  0.22603533287414004  1.0000
  Ca  Ca4       1.0  0.32430227024338454  0.48428174856089573  0.42052203195548843  1.0000
  Si  Si1       1.0  0.3506744558325332  0.37235344642854246  0.14681855240611796  1.0000
  Si  Si2       1.0  0.46573685492399297  0.2657946730630855  0.17465741795238726  1.0000
  Si  Si3       1.0  0.17419776329880446  0.4005707765334844  0.26373774414283907  1.0000
  Si  Si4       1.0  0.4527585399759558  0.5286814558605767  0.23936862477794313  1.0000
  Si  Si5       1.0  0.2555948902300509  0.3727828409210357  0.6181829654833506  1.0000
  Al  Al1       1.0  0.32493310195217734  0.26678798941222664  0.31868997283468853  1.0000
  Al  Al2       1.0  0.31608793904224847  0.47864638122354786  0.4138821199524373  1.0000
  O   O1        1.0  0.11666805461707688  0.33297117780728147  0.32653484751121176  1.0000
  O   O2        1.0  0.31176478411060154  0.9461218172083707  0.4309054936629836  1.0000
  O   O3        1.0  0.2960410594845183  0.36951363024430034  0.7159594650641531  1.0000
  O   O4        1.0  0.383950692514639  0.47306413041676026  0.16569468392956135  1.0000
  O   O5        1.0  0.41911942853657197  0.6306086726643612  0.24395603538355876  1.0000
  O   O6        1.0  0.2859054485187672  0.452514973484164  0.5550036955399515  1.0000
  O   O7        1.0  0.2674125760054757  0.17326768710963694  0.3567394975311824  1.0000
  O   O8        1.0  0.5683104863475104  0.28844676594546903  0.17164578437280076  1.0000
  O   O9        1.0  0.11927850662673194  0.43496253147839103  0.18059743888969676  1.0000
  O   O10       1.0  0.3124270819374994  0.3433450437536561  0.4086567158840302  1.0000
  O   O11       1.0  0.5547386686442497  0.5069832927336085  0.2172442346343878  1.0000
  O   O12       1.0  0.22196839236522625  0.4757485823195112  0.3300708737610221  1.0000
  O   O13       1.0  0.27166505651341905  0.33810112162708744  0.2261731127073582  1.0000
  O   O14       1.0  0.42693439537534755  0.4777152820083474  0.3374325528187024  1.0000
  O   O15       1.0  0.19154119285711813  0.2975444861480046  0.5832600544901712  1.0000
  O   O16       1.0  0.42470875873552816  0.2291988459006908  0.2695644667751771  1.0000
  O   O17       1.0  0.15318163662939152  0.13057700928898408  0.7783775416694001  1.0000
  H   H1        1.0  0.1526569261167797  0.18145690376251805  0.7386236083360667  1.0000
  H   H2        1.0  0.15370634714200335  0.07969711481545008  0.7386236083360667  1.0000
  O   O18       1.0  0.5246903002123147  0.3471603036497609  0.5632795604686225  1.0000
  H   H3        1.0  0.5245252212767927  0.39804263586542343  0.5235256271352892  1.0000
  H   H4        1.0  0.5248553791478368  0.2962779714340984  0.5235256271352892  1.0000
  O   O19       1.0  0.7202701004332354  0.8022879043898041  0.7115274385967663  1.0000
  H   H5        1.0  0.7165534678646279  0.8530345853168357  0.6717735052634328  1.0000
  H   H6        1.0  0.7239867330018427  0.7515412234627724  0.6717735052634328  1.0000
  O   O20       1.0  0.758542943356636  0.6858076179517143  0.4080366419258017  1.0000
  H   H7        1.0  0.7581944573748695  0.7366890245781088  0.36828270859246837  1.0000
  H   H8        1.0  0.7588914293384026  0.6349262113253197  0.36828270859246837  1.0000
  O   O21       1.0  0.8383518434609861  0.1833853614376392  0.40050522858131743  1.0000
  H   H9        1.0  0.837113319037483  0.23425288585167361  0.3607512952479841  1.0000
  H   H10       1.0  0.8395903678844892  0.13251783702360478  0.3607512952479841  1.0000
  O   O22       1.0  0.8061508890595168  0.46890885711410957  0.5372246976331619  1.0000
  H   H11       1.0  0.8058281747827026  0.519790433723483  0.4974707642998286  1.0000
  H   H12       1.0  0.8064736033363309  0.4180272805047361  0.4974707642998286  1.0000
  O   O23       1.0  0.5891463998674222  0.4873627007512569  0.761849003389233  1.0000
  H   H13       1.0  0.585045617636702  0.5380797843410713  0.7220950700558996  1.0000
  H   H14       1.0  0.5932471820981424  0.4366456171614427  0.7220950700558996  1.0000
  O   O24       1.0  0.6714552903739088  0.2604479721727902  0.891440241704669  1.0000
  H   H15       1.0  0.6674194664044459  0.3111702661631798  0.8516863083713355  1.0000
  H   H16       1.0  0.6754911143433716  0.2097256781824006  0.8516863083713355  1.0000
  O   O25       1.0  0.4351770166485027  0.7881410046719093  0.8740612319948298  1.0000
  H   H17       1.0  0.4314112785704844  0.8388840652761709  0.8343072986614963  1.0000
  H   H18       1.0  0.438942754726521  0.7373979440676477  0.8343072986614963  1.0000
  O   O26       1.0  0.8135568707029048  0.4552755020371425  0.8395754432198321  1.0000
  H   H19       1.0  0.8111978293746722  0.5061033871669773  0.7998215098864987  1.0000
  H   H20       1.0  0.8159159120311373  0.4044476169073076  0.7998215098864987  1.0000
