data_image0
_chemical_formula_structural       Si4Al4O15H2OH2OH2OH2OH2OH2OH2OH2OH2OH2
_chemical_formula_sum              "Si4 Al4 O24 H20"
_cell_length_a       13.924766500838334
_cell_length_b       13.924766500838334
_cell_length_c       13.924766500838334
_cell_angle_alpha    90.0
_cell_angle_beta     90.0
_cell_angle_gamma    90.0

_space_group_name_H-M_alt    "P 1"
_space_group_IT_number       1

loop_
  _space_group_symop_operation_xyz
  'x, y, z'

loop_
  _atom_site_type_symbol
  _atom_site_label
  _atom_site_symmetry_multiplicity
  _atom_site_fract_x
  _atom_site_fract_y
  _atom_site_fract_z
  _atom_site_occupancy
  Si  Si1       1.0  0.4291531816603939  0.24833134352945224  0.28873600770557173  1.0000
  Si  Si2       1.0  0.4790865958917439  0.5506990032637438  0.19570108374083864  1.0000
  Si  Si3       1.0  0.43653553799755807  0.40752009795744104  0.34587414935418015  1.0000
  Si  Si4       1.0  0.44475576973054737  0.568679352015304  0.48949815257934925  1.0000
  Al  Al1       1.0  0.15594515938918668  0.23252881618361798  0.4251121071160243  1.0000
  Al  Al2       1.0  0.2980682558614007  0.2631995517175747  0.09351117733008002  1.0000
  Al  Al3       1.0  0.4657888053091728  0.039973316435777596  0.39025656502328593  1.0000
  Al  Al4       1.0  0.41050128560690674  0.45271017143106335  0.012096112332699143  1.0000
  O   O1        1.0  0.4919522196138525  0.48401080118144524  0.10060106273786833  1.0000
  O   O2        1.0  0.13192944701647039  0.25640172454739707  0.433942876179816  1.0000
  O   O3        1.0  0.3814431935874417  0.2302735618617293  0.18492314717308125  1.0000
  O   O4        1.0  0.1655616487608072  0.2750268810772336  0.09332192905929836  1.0000
  O   O5        1.0  0.40775308524558296  0.5427917058213213  0.5955568356991073  1.0000
  O   O6        1.0  0.4687431638080886  0.46164940327523435  0.44257688397393025  1.0000
  O   O7        1.0  0.34594388511132024  0.3486783572612693  0.6817717365931767  1.0000
  O   O8        1.0  0.3659935912835901  0.9662735430489787  0.4226879560129644  1.0000
  O   O9        1.0  0.21304164267785197  0.16575947788795675  0.07490258862175092  1.0000
  O   O10       1.0  0.4061823536326319  0.48755841725166166  0.26583460401578224  1.0000
  O   O11       1.0  0.5377826143479817  0.9767126033688593  0.47339326072451093  1.0000
  O   O12       1.0  0.46774359081887285  0.15099477904659428  0.34087264482668245  1.0000
  O   O13       1.0  0.5181709753077288  0.33113837884231945  0.29814552012875833  1.0000
  O   O14       1.0  0.35659030127187996  0.31827878198067716  0.3581910143873688  1.0000
  O   O15       1.0  0.8514074721151788  0.8165036102378571  0.16556182181096557  1.0000
  H   H1        1.0  0.8484560353869942  0.8712357089485888  0.12273819529169147  1.0000
  H   H2        1.0  0.8543589088433634  0.7617715115271254  0.12273819529169147  1.0000
  O   O16       1.0  0.7202691553173893  0.5261386899904661  0.6393840770999784  1.0000
  H   H3        1.0  0.7159237726245976  0.5807777900681114  0.5965604505807042  1.0000
  H   H4        1.0  0.724614538010181  0.47149958991282076  0.5965604505807042  1.0000
  O   O17       1.0  0.2260795471777209  0.6078329181111397  0.6296908908974528  1.0000
  H   H5        1.0  0.22586303433581018  0.6626441097623986  0.5868672643781786  1.0000
  H   H6        1.0  0.22629606001963168  0.5530217264598807  0.5868672643781786  1.0000
  O   O18       1.0  0.6310957798905892  0.8002898259701362  0.6068069493368398  1.0000
  H   H7        1.0  0.6304973605165469  0.8550981784567282  0.5639833228175656  1.0000
  H   H8        1.0  0.6316941992646316  0.7454814734835441  0.5639833228175656  1.0000
  O   O19       1.0  0.8726077010536873  0.8707582503301023  0.8692396303799519  1.0000
  H   H9        1.0  0.8675329338578743  0.9253344387821191  0.8264160038606777  1.0000
  H   H10       1.0  0.8776824682495005  0.8161820618780856  0.8264160038606777  1.0000
  O   O20       1.0  0.34374312166323134  0.7952878013587272  0.8997849433178705  1.0000
  H   H11       1.0  0.33868706437268853  0.8498657263166852  0.8569613167985963  1.0000
  H   H12       1.0  0.3487991789537741  0.7407098764007691  0.8569613167985963  1.0000
  O   O21       1.0  0.8903704869297181  0.8924439486585014  0.6509050402341604  1.0000
  H   H13       1.0  0.8857758481328312  0.9470626533517463  0.6080814137148862  1.0000
  H   H14       1.0  0.8949651257266049  0.8378252439652565  0.6080814137148862  1.0000
  O   O22       1.0  0.6764539390243864  0.18577077456929866  0.5353826796459016  1.0000
  H   H15       1.0  0.6736848191454476  0.2405124002588762  0.49255905312662746  1.0000
  H   H16       1.0  0.6792230589033251  0.1310291488797211  0.49255905312662746  1.0000
  O   O23       1.0  0.7480837909198874  0.8534299897061122  0.39939735558486467  1.0000
  H   H17       1.0  0.7457909146798665  0.908193630258852  0.3565737290655906  1.0000
  H   H18       1.0  0.7503766671599084  0.7986663491533723  0.3565737290655906  1.0000
  O   O24       1.0  0.6199091903726947  0.1314164106764392  0.15425441601126288  1.0000
  H   H19       1.0  0.6180837425738323  0.1861976241384955  0.1114307894919888  1.0000
  H   H20       1.0  0.621734638171557  0.07663519721438286  0.1114307894919888  1.0000
