data_image0
_chemical_formula_structural       Si4Al4O14
_chemical_formula_sum              "Si4 Al4 O14"
_cell_length_a       9.283177667225557
_cell_length_b       9.283177667225557
_cell_length_c       9.283177667225557
_cell_angle_alpha    90.0
_cell_angle_beta     90.0
_cell_angle_gamma    90.0

_space_group_name_H-M_alt    "P 1"
_space_group_IT_number       1

loop_
  _space_group_symop_operation_xyz
  'x, y, z'

loop_
  _atom_site_type_symbol
  _atom_site_label
  _atom_site_symmetry_multiplicity
  _atom_site_fract_x
  _atom_site_fract_y
  _atom_site_fract_z
  _atom_site_occupancy
  Si  Si1       1.0  0.6437297724905908  0.37249701529417834  0.4331040115583576  1.0000
  Si  Si2       1.0  0.7186298938376158  0.8260485048956158  0.29355162561125797  1.0000
  Si  Si3       1.0  0.6548033069963372  0.6112801469361615  0.5188112240312702  1.0000
  Si  Si4       1.0  0.6671336545958211  0.8530190280229559  0.7342472288690238  1.0000
  Al  Al1       1.0  0.23391773908378002  0.34879322427542697  0.6376681606740364  1.0000
  Al  Al2       1.0  0.447102383792101  0.39479932757636205  0.14026676599512003  1.0000
  Al  Al3       1.0  0.6986832079637593  0.05995997465366639  0.5853848475349289  1.0000
  Al  Al4       1.0  0.6157519284103601  0.679065257146595  0.018144168499048714  1.0000
  O   O1        1.0  0.7379283294207787  0.7260162017721679  0.15090159410680248  1.0000
  O   O2        1.0  0.1978941705247056  0.3846025868210956  0.6509143142697239  1.0000
  O   O3        1.0  0.5721647903811626  0.3454103427925939  0.2773847207596219  1.0000
  O   O4        1.0  0.24834247314121077  0.41254032161585047  0.13998289358894753  1.0000
  O   O5        1.0  0.6116296278683745  0.814187558731982  0.8933352535486611  1.0000
  O   O6        1.0  0.703114745712133  0.6924741049128514  0.6638653259608953  1.0000
  O   O7        1.0  0.5189158276669804  0.5230175358919039  0.022657604889765093  1.0000
  O   O8        1.0  0.5489903869253852  0.949410314573468  0.6340319340194466  1.0000
  O   O9        1.0  0.31956246401677796  0.24863921683193513  0.11235388293262637  1.0000
  O   O10       1.0  0.6092735304489478  0.7313376258774925  0.39875190602367333  1.0000
  O   O11       1.0  0.8066739215219725  0.9650689050532891  0.7100898910867665  1.0000
  O   O12       1.0  0.7016153862283092  0.2264921685698914  0.5113089672400237  1.0000
  O   O13       1.0  0.7772564629615932  0.49670756826347917  0.44721828019313753  1.0000
  O   O14       1.0  0.5348854519078199  0.4774181729710158  0.5372865215810532  1.0000
