data_image0
_chemical_formula_structural       Fe4Al4Si2TiO17H2OH2OH2OH2OH2OH2OH2OH2OH2OH2
_chemical_formula_sum              "Fe4 Al4 Si2 Ti1 O26 H20"
_cell_length_a       15.484201731845506
_cell_length_b       15.484201731845506
_cell_length_c       15.484201731845506
_cell_angle_alpha    90.0
_cell_angle_beta     90.0
_cell_angle_gamma    90.0

_space_group_name_H-M_alt    "P 1"
_space_group_IT_number       1

loop_
  _space_group_symop_operation_xyz
  'x, y, z'

loop_
  _atom_site_type_symbol
  _atom_site_label
  _atom_site_symmetry_multiplicity
  _atom_site_fract_x
  _atom_site_fract_y
  _atom_site_fract_z
  _atom_site_occupancy
  Fe  Fe1       1.0  0.4945380716661668  0.3823371015377245  0.43236204219182717  1.0000
  Fe  Fe2       1.0  0.3906039550000717  0.5244175362858026  0.44213126627930693  1.0000
  Fe  Fe3       1.0  0.18556485694282784  0.3483519012240146  0.2581582559663079  1.0000
  Fe  Fe4       1.0  0.10573844896055877  0.20527627564666034  0.11909388585015462  1.0000
  Al  Al1       1.0  0.36179634276145767  0.3757995421532696  0.27914351821592776  1.0000
  Al  Al2       1.0  0.3471119648145914  0.3550202735207063  0.5696700349639572  1.0000
  Al  Al3       1.0  0.5952699900950867  0.1950858644986423  0.47913769132786366  1.0000
  Al  Al4       1.0  0.3410794568658175  0.3546267764118697  0.11951151398741053  1.0000
  Si  Si1       1.0  0.43841735767540174  0.07491886605420488  0.4756668684066312  1.0000
  Si  Si2       1.0  0.11037263612313085  0.22446629328761025  0.573192217580133  1.0000
  Ti  Ti1       1.0  0.29337048895704854  0.25699522075659625  0.4547649221799033  1.0000
  O   O1        1.0  0.5387690053304103  0.0982671996931847  0.47629207395808576  1.0000
  O   O2        1.0  0.3002641453886349  0.25808518527831875  0.45855408406811293  1.0000
  O   O3        1.0  0.4197329341815353  0.43269803876179436  0.5270090704705496  1.0000
  O   O4        1.0  0.2778880398641817  0.41261663761457856  0.19807638510268546  1.0000
  O   O5        1.0  0.33208133333869155  0.35385659548118953  0.011264598443151481  1.0000
  O   O6        1.0  0.41981873256538915  0.4456048580185188  0.3465535173218285  1.0000
  O   O7        1.0  0.4070627074240295  0.6461088419880345  0.46103869041364554  1.0000
  O   O8        1.0  0.5573705971777748  0.28095866825946025  0.4261245493686948  1.0000
  O   O9        1.0  0.014812187680181521  0.19745117510649288  0.5463714853288021  1.0000
  O   O10       1.0  0.28082386292495987  0.3238737642238817  0.3483090856646619  1.0000
  O   O11       1.0  0.4128742342176013  0.31735801548864534  0.19626819490764966  1.0000
  O   O12       1.0  0.37225487792251316  0.151576453436345  0.49224969097493554  1.0000
  O   O13       1.0  0.18171556319779433  0.22683860435790215  0.49708604852394483  1.0000
  O   O14       1.0  0.17762085650710988  0.24019340752833102  0.49963059563175233  1.0000
  O   O15       1.0  0.13780362293659354  0.2162212897195123  0.003843031399355948  1.0000
  O   O16       1.0  0.11050054904127433  0.2664139081808414  0.21779329081997545  1.0000
  O   O17       1.0  0.2971647096499841  0.19750196145279436  0.7292031016735134  1.0000
  H   H1        1.0  0.2950040717062992  0.24674604986670237  0.6906923014187217  1.0000
  H   H2        1.0  0.29932534759366897  0.14825787303888638  0.6906923014187217  1.0000
  O   O18       1.0  0.18142451351773126  0.6243838129726964  0.1435078142154964  1.0000
  H   H3        1.0  0.18074050341938394  0.6736705325858523  0.10499701396070484  1.0000
  H   H4        1.0  0.18210852361607857  0.5750970933595405  0.10499701396070484  1.0000
  O   O19       1.0  0.12476230915513335  0.8239494297362654  0.5546506475499524  1.0000
  H   H5        1.0  0.12090828734025004  0.8730899946077733  0.5161398472951607  1.0000
  H   H6        1.0  0.12861633097001665  0.7748088648647574  0.5161398472951607  1.0000
  O   O20       1.0  0.343488891187219  0.5672226003228568  0.7665626962676869  1.0000
  H   H7        1.0  0.34300364638821673  0.6165116775867447  0.7280518960128952  1.0000
  H   H8        1.0  0.34397413598622123  0.5179335230589688  0.7280518960128952  1.0000
  O   O21       1.0  0.6366795707799192  0.3538098221218649  0.8456317388087101  1.0000
  H   H9        1.0  0.6335105769282596  0.4029993136623212  0.8071209385539184  1.0000
  H   H10       1.0  0.6398485646315787  0.3046203305814086  0.8071209385539184  1.0000
  O   O22       1.0  0.7384668038493946  0.7810060793317509  0.7715706556983059  1.0000
  H   H11       1.0  0.7333507257691882  0.8300313212497437  0.7330598554435143  1.0000
  H   H12       1.0  0.7435828819296008  0.7319808374137581  0.7330598554435143  1.0000
  O   O23       1.0  0.7149311510023392  0.505501680439289  0.5960378672140464  1.0000
  H   H13       1.0  0.7123531519976476  0.554725683945427  0.5575270669592547  1.0000
  H   H14       1.0  0.7175091500070307  0.45627767693315097  0.5575270669592547  1.0000
  O   O24       1.0  0.5572210213176196  0.5028681550044737  0.6847813814460982  1.0000
  H   H15       1.0  0.5563086464805186  0.5521511761395167  0.6462705811913065  1.0000
  H   H16       1.0  0.5581333961547207  0.45358513386943056  0.6462705811913065  1.0000
  O   O25       1.0  0.1207805055330736  0.6547103144261257  0.9058323138149766  1.0000
  H   H17       1.0  0.11709730357017965  0.703863977802735  0.867321513560185  1.0000
  H   H18       1.0  0.12446370749596752  0.6055566510495165  0.867321513560185  1.0000
  O   O26       1.0  0.6385566524942837  0.31743209392801913  0.11792461265477001  1.0000
  H   H19       1.0  0.634521528520927  0.3665581193581323  0.07941381239997844  1.0000
  H   H20       1.0  0.6425917764676404  0.268306068497906  0.07941381239997844  1.0000
