data_image0
_chemical_formula_structural       Ca8Si3Fe2MgO17H2OH2OH2OH2OH2OH2OH2OH2OH2OH2
_chemical_formula_sum              "Ca8 Si3 Fe2 Mg1 O26 H20"
_cell_length_a       15.939878537739165
_cell_length_b       15.939878537739165
_cell_length_c       15.939878537739165
_cell_angle_alpha    90.0
_cell_angle_beta     90.0
_cell_angle_gamma    90.0

_space_group_name_H-M_alt    "P 1"
_space_group_IT_number       1

loop_
  _space_group_symop_operation_xyz
  'x, y, z'

loop_
  _atom_site_type_symbol
  _atom_site_label
  _atom_site_symmetry_multiplicity
  _atom_site_fract_x
  _atom_site_fract_y
  _atom_site_fract_z
  _atom_site_occupancy
  Ca  Ca1       1.0  0.38739381880036905  0.36287986652077975  0.5945428280855031  1.0000
  Ca  Ca2       1.0  0.3232443236801731  0.5721013399642978  0.08852060006020418  1.0000
  Ca  Ca3       1.0  0.3839345957265007  0.2527864820693908  0.3401726435470745  1.0000
  Ca  Ca4       1.0  0.20908637889550602  0.29933980314456005  0.6726507596912759  1.0000
  Ca  Ca5       1.0  0.22345781821242242  0.335103819189434  0.46498245929445065  1.0000
  Ca  Ca6       1.0  0.2351303490665221  0.1385377660021787  0.45464022320237096  1.0000
  Ca  Ca7       1.0  0.22359301473389592  0.361249795082581  0.25099711269944025  1.0000
  Ca  Ca8       1.0  0.2446140792169696  0.5337671679223377  0.5328993843004431  1.0000
  Si  Si1       1.0  0.33902533531866913  0.07415495665196535  0.31299523265429163  1.0000
  Si  Si2       1.0  0.35651189093834457  0.371170635682211  0.11440606439082769  1.0000
  Si  Si3       1.0  0.37783504264665807  0.933173825431205  0.35673273150698165  1.0000
  Fe  Fe1       1.0  0.3612333349270564  0.44415476849916313  0.3974891910905509  1.0000
  Fe  Fe2       1.0  0.19018036438155264  0.16936888691596774  0.2588093921260608  1.0000
  Mg  Mg1       1.0  0.32802594785240297  0.21349793770974185  0.1497009997601456  1.0000
  O   O1        1.0  0.2532601528075303  0.5965770868711793  0.9872478775734134  1.0000
  O   O2        1.0  0.3691433813926753  0.13488664273842785  0.23394011290395286  1.0000
  O   O3        1.0  0.2580919737472713  0.4063927964102988  0.5804602724441875  1.0000
  O   O4        1.0  0.384921736902526  0.34086253441469033  0.4522025948755122  1.0000
  O   O5        1.0  0.2340275082717764  0.06853552454643205  0.3154416422854372  1.0000
  O   O6        1.0  0.3216692621693396  0.5734608154757179  0.08568945628525984  1.0000
  O   O7        1.0  0.2634549339358428  0.4178700794899545  0.12518996419042566  1.0000
  O   O8        1.0  0.35681169669465956  0.5714671323275767  0.45302509915599914  1.0000
  O   O9        1.0  0.41952323702143274  0.4335383766175388  0.06361856636318107  1.0000
  O   O10       1.0  0.21703320647469188  0.22699939360052  0.5549113908090717  1.0000
  O   O11       1.0  0.36572164188151896  0.12412067461995263  0.40021097326116545  1.0000
  O   O12       1.0  0.34626863562778387  0.28677259095846414  0.7154753656810976  1.0000
  O   O13       1.0  0.2062047221143059  0.23324995778435217  0.15838217669092658  1.0000
  O   O14       1.0  0.3698389650376853  0.3229341574775674  0.20714611214733705  1.0000
  O   O15       1.0  0.234709260012658  0.24845539283583357  0.34936949875369294  1.0000
  O   O16       1.0  0.2449617214269078  0.441282882106303  0.3689635285509385  1.0000
  O   O17       1.0  0.49778491085904  0.47534507310371177  0.32420733128402285  1.0000
  H   H1        1.0  0.49363739464318696  0.5230474681524654  0.2867974477276217  1.0000
  H   H2        1.0  0.5019324270748929  0.42764267805495815  0.2867974477276217  1.0000
  O   O18       1.0  0.6254611538099087  0.6064296180637971  0.545705670407976  1.0000
  H   H3        1.0  0.6236251473610699  0.6542767649428738  0.5082957868515747  1.0000
  H   H4        1.0  0.6272971602587476  0.5585824711847204  0.5082957868515747  1.0000
  O   O19       1.0  0.3553501180599308  0.8747057993651243  0.8943967757202546  1.0000
  H   H5        1.0  0.3540070990992495  0.922569320800758  0.8569868921638533  1.0000
  H   H6        1.0  0.3566931370206121  0.8268422779294906  0.8569868921638533  1.0000
  O   O20       1.0  0.8288047182309535  0.3630838799649236  0.3473949339417062  1.0000
  H   H7        1.0  0.8276220947919762  0.4109516330555973  0.30998505038530505  1.0000
  H   H8        1.0  0.8299873416699307  0.3152161268742499  0.30998505038530505  1.0000
  O   O21       1.0  0.5555139959179376  0.3948466594925696  0.7157911097499922  1.0000
  H   H9        1.0  0.5540028280741749  0.44270516715731084  0.6783812261935909  1.0000
  H   H10       1.0  0.5570251637617003  0.34698815182782833  0.6783812261935909  1.0000
  O   O22       1.0  0.3748859285395089  0.63171805758316  0.8422304348840236  1.0000
  H   H11       1.0  0.37283232911888836  0.6795563593252553  0.8048205513276224  1.0000
  H   H12       1.0  0.3769395279601295  0.5838797558410648  0.8048205513276224  1.0000
  O   O23       1.0  0.5603305438157962  0.12040499331780836  0.7075241330224398  1.0000
  H   H13       1.0  0.5571843885462853  0.16818388082231447  0.6701142494660385  1.0000
  H   H14       1.0  0.5634766990853072  0.07262610581330226  0.6701142494660385  1.0000
  O   O24       1.0  0.8055288441879883  0.31408043000012975  0.8020096270631538  1.0000
  H   H15       1.0  0.8021878522481148  0.36184608876252744  0.7645997435067525  1.0000
  H   H16       1.0  0.8088698361278619  0.26631477123773206  0.7645997435067525  1.0000
  O   O25       1.0  0.7047466109191193  0.7484681992895612  0.23411263515524047  1.0000
  H   H17       1.0  0.703924946255009  0.7963435087019074  0.19670275159883932  1.0000
  H   H18       1.0  0.7055682755832295  0.7005928898772151  0.19670275159883932  1.0000
  O   O26       1.0  0.5104472365974962  0.7907391861162321  0.12152632210512264  1.0000
  H   H19       1.0  0.5069467662094319  0.8384934224854843  0.08411643854872149  1.0000
  H   H20       1.0  0.5139477069855605  0.7429849497469798  0.08411643854872149  1.0000
