data_image0
_chemical_formula_structural       Ca8Si3Fe2MgO16
_chemical_formula_sum              "Ca8 Si3 Fe2 Mg1 O16"
_cell_length_a       10.62658569182611
_cell_length_b       10.62658569182611
_cell_length_c       10.62658569182611
_cell_angle_alpha    90.0
_cell_angle_beta     90.0
_cell_angle_gamma    90.0

_space_group_name_H-M_alt    "P 1"
_space_group_IT_number       1

loop_
  _space_group_symop_operation_xyz
  'x, y, z'

loop_
  _atom_site_type_symbol
  _atom_site_label
  _atom_site_symmetry_multiplicity
  _atom_site_fract_x
  _atom_site_fract_y
  _atom_site_fract_z
  _atom_site_occupancy
  Ca  Ca1       1.0  0.5810907282005536  0.5443197997811697  0.8918142421282548  1.0000
  Ca  Ca2       1.0  0.48486648552025974  0.8581520099464469  0.1327809000903063  1.0000
  Ca  Ca3       1.0  0.5759018935897512  0.3791797231040863  0.5102589653206118  1.0000
  Ca  Ca4       1.0  0.3136295683432591  0.4490097047168402  0.008976139536914118  1.0000
  Ca  Ca5       1.0  0.3351867273186337  0.5026557287841511  0.697473688941676  1.0000
  Ca  Ca6       1.0  0.35269552359978323  0.20780664900326812  0.6819603348035567  1.0000
  Ca  Ca7       1.0  0.335389522100844  0.5418746926238716  0.3764956690491605  1.0000
  Ca  Ca8       1.0  0.3669211188254545  0.8006507518835067  0.799349076450665  1.0000
  Si  Si1       1.0  0.5085380029780038  0.11123243497794805  0.46949284898143756  1.0000
  Si  Si2       1.0  0.5347678364075169  0.5567559535233165  0.17160909658624157  1.0000
  Si  Si3       1.0  0.5667525639699872  0.8997607381468075  0.5350990972604726  1.0000
  Fe  Fe1       1.0  0.5418500023905847  0.6662321527487448  0.5962337866358265  1.0000
  Fe  Fe2       1.0  0.28527054657232903  0.25405333037395167  0.38821408818909126  1.0000
  Mg  Mg1       1.0  0.4920389217786046  0.32024690656461285  0.22455149964021842  1.0000
  O   O1        1.0  0.3798902292112955  0.8948656303067691  0.98087181636012  1.0000
  O   O2        1.0  0.553715072089013  0.2023299641076418  0.3509101693559294  1.0000
  O   O3        1.0  0.387137960620907  0.6095891946154484  0.8706904086662814  1.0000
  O   O4        1.0  0.5773826053537892  0.5112938016220356  0.6783038923132684  1.0000
  O   O5        1.0  0.3510412624076647  0.1028032868196481  0.4731624634281559  1.0000
  O   O6        1.0  0.4825038932540095  0.8601912232135771  0.1285341844278898  1.0000
  O   O7        1.0  0.3951824009037643  0.626805119234932  0.18778494628563852  1.0000
  O   O8        1.0  0.5352175450419895  0.8572006984913654  0.6795376487339989  1.0000
  O   O9        1.0  0.6292848555321493  0.6503075649263083  0.09542784954477163  1.0000
  O   O10       1.0  0.3255498097120379  0.34049909040078  0.8323670862136077  1.0000
  O   O11       1.0  0.5485824628222786  0.186181011929929  0.6003164598917483  1.0000
  O   O12       1.0  0.519402953441676  0.4301588864376963  0.07321304852164667  1.0000
  O   O13       1.0  0.30930708317145894  0.3498749366765283  0.2375732650363899  1.0000
  O   O14       1.0  0.554758447556528  0.48440123621635117  0.31071916822100565  1.0000
  O   O15       1.0  0.3520638900189871  0.37268308925375043  0.5240542481305396  1.0000
  O   O16       1.0  0.3674425821403618  0.6619243231594547  0.5534452928264079  1.0000
